/*---------------------------------------------------------------------------*\
| =========                 |                                                 |
| \\      /  F ield         | OpenFOAM: The Open Source CFD Toolbox           |
|  \\    /   O peration     | Version:  2312                                  |
|   \\  /    A nd           | Website:  www.openfoam.com                      |
|    \\/     M anipulation  |                                                 |
\*---------------------------------------------------------------------------*/
Build  : _1d8f0d55f7-20231221 OPENFOAM=2312 version=v2312
Arch   : "LSB;label=32;scalar=64"
Exec   : changeDictionary
Date   : Jul 11 2025
Time   : 11:44:33
Host   : Ivans-MacBook-Pro.local
PID    : 63385
I/O    : uncollated
Case   : /Volumes/OpenFOAM/work/solid-benchmarks-ib/linearElasticity/highOrderManufacturedSolution/2D/base/snes
nProcs : 1
trapFpe: Floating point exception trapping enabled (FOAM_SIGFPE).
fileModificationChecking : Monitoring run-time modified files using timeStampMaster (fileModificationSkew 5, maxFileModificationPolls 20)
allowSystemOperations : Allowing user-supplied system call operations

// * * * * * * * * * * * * * * * * * * * * * * * * * * * * * * * * * * * * * //
Create time

--> FOAM Warning : 
    From void *Foam::dlLibraryTable::openLibrary(const fileName &, bool)
    in file db/dynamicLibrary/dlLibraryTable/dlLibraryTable.C at line 188
    Could not load "libhighOrderManufacturedSolution2D.so"
dlopen(libhighOrderManufacturedSolution2D.dylib, 0x0009): tried: '/Volumes/OpenFOAM/OpenFOAM-v2312/platforms/darwin64ClangDPInt32Opt/lib/sys-openmpi/libhighOrderManufacturedSolution2D.dylib' (no such file), '/Volumes/OpenFOAM/OpenFOAM-v2312/platforms/darwin64ClangDPInt32Opt/lib/libhighOrderManufacturedSolution2D.dylib' (no such file), '/opt/homebrew/Cellar/open-mpi/5.0.7/lib/libhighOrderManufacturedSolution2D.dylib' (no such file), '/Volumes/OpenFOAM/OpenFOAM-v2312/platforms/darwin64ClangDPInt32Opt/lib/dummy/libhighOrderManufacturedSolution2D.dylib' (no such file), 'libhighOrderManufacturedSolution2D.dylib' (no such file), '/System/Volumes/Preboot/Cryptexes/OSlibhighOrderManufacturedSolution2D.dylib' (no such file), '/Volumes/OpenFOAM/OpenFOAM-v2312/platforms/darwin64ClangDPInt32Opt/lib/sys-openmpi/libhighOrderManufacturedSolution2D.dylib' (no such file), '/Volumes/OpenFOAM/OpenFOAM-v2312/platforms/darwin64ClangDPInt32Opt/lib/libhighOrderManufacturedSolution2D.dylib' (no such file), '/Volumes/OpenFOAM/OpenFOAM-v2312/platforms/darwin64ClangDPInt32Opt/lib/dummy/libhighOrderManufacturedSolution2D.dylib' (no such file), '/Volumes/OpenFOAM/OpenFOAM-v2312/platforms/darwin64ClangDPInt32Opt/lib/sys-openmpi/libhighOrderManufacturedSolution2D.dylib' (no such file), '/Volumes/OpenFOAM/OpenFOAM-v2312/platforms/darwin64ClangDPInt32Opt/lib/libhighOrderManufacturedSolution2D.dylib' (no such file), '/Volumes/OpenFOAM/OpenFOAM-v2312/platforms/darwin64ClangDPInt32Opt/lib/dummy/libhighOrderManufacturedSolution2D.dylib' (no such file), '/usr/lib/libhighOrderManufacturedSolution2D.dylib' (no such file, not in dyld cache), 'libhighOrderManufacturedSolution2D.dylib' (no such file)
Create mesh for time = 0

Read dictionary changeDictionaryDict with replacements for dictionaries 1(boundary)
Reading polyMesh/boundary file to extract patch names
Loaded dictionary boundary with entries 2(frontAndBack sides)
Replacing entries in dictionary boundary
Special handling of boundary as polyMesh/boundary file.
Merging entries from 1(frontAndBack)
fieldDict:
{
    frontAndBack
    {
        type            empty;
        physicalType    empty;
        nFaces          53052;
        startFace       39589;
    }
    sides
    {
        type            patch;
        physicalType    patch;
        nFaces          400;
        startFace       92641;
    }
}

Writing modified boundary

End

